iidm/iidm-xml-converter/src/test/resources/dl-TOPO.xiidm
<?xml version="1.0" encoding="UTF-8"?>
<iidm:network xmlns:iidm="http://www.itesla_project.eu/schema/iidm/1_0" id="dangling-line" caseDate="2019-03-28T16:47:02.826+01:00" forecastDistance="0" sourceFormat="test">
    <iidm:substation id="S">
        <iidm:voltageLevel id="VL">
            <iidm:generator id="G" bus="BUS" connectableBus="BUS"></iidm:generator>
            <iidm:danglingLine id="DL" bus="BUS" connectableBus="BUS"></iidm:danglingLine>
        </iidm:voltageLevel>
    </iidm:substation>
</iidm:network>
